contingency/no_load/60pc/TNB_DUMA_VLN.Txt

SYMMETRICAL COMPONENT VOLTAGES BY BUS (for 3-phase buses)

Bus               Mag:   V1 (kV)    p.u.     V2 (kV)   %V2/V1    V0 (kV)    %V0/V1

ppu_duma_33kv        18.79     0.9864  6.038E-009  3.213E-008 1.239E-009 6.595E-009
ppu_duma_11kv         5.75     0.9054  1.323E-008   2.3E-007 6.399E-008 1.113E-006
rpplngi2             5.855      0.922  1.304E-008  2.227E-007 6.544E-008 1.118E-006
pdtjlnmasjid         5.935     0.9345  1.291E-008  2.175E-007 6.654E-008 1.121E-006
bella                5.988     0.9428  1.282E-008  2.141E-007 6.728E-008 1.124E-006
pstpdgn              6.014      0.947  1.277E-008  2.124E-007 6.764E-008 1.125E-006
pamdra               5.761     0.9071  1.32E-008  2.291E-007 6.417E-008 1.114E-006
duma4                5.798     0.9129  1.311E-008  2.261E-007 7.226E-008 1.246E-006
plsdra               5.879     0.9257  1.294E-008   2.2E-007 8.77E-008 1.492E-006
ssu_uptwres_ir1      5.893     0.9279  1.289E-008  2.188E-007 8.794E-008 1.492E-006
atria_1              5.894      0.928  1.297E-008   2.2E-007 6.593E-008 1.119E-006
hawker               5.918     0.9319  1.28E-008  2.163E-007 6.65E-008 1.124E-006
prmte                5.847     0.9207  1.29E-008  2.206E-007 8.329E-008 1.424E-006
prmta                5.864     0.9233  1.285E-008  2.192E-007 8.357E-008 1.425E-006
pmontb               5.876     0.9253  1.283E-008  2.182E-007 8.596E-008 1.463E-006
duma7                5.789     0.9115  1.543E-008  2.666E-007 6.252E-008 1.08E-006
haus                 5.867     0.9238  1.907E-008  3.251E-007 2.371E-007 4.041E-006
duma6                6.078      0.957  3.598E-008  5.92E-007 1.088E-006 1.79E-005
duma13               6.268      0.987  5.586E-008  8.912E-007 2.008E-006 3.203E-005
ssu_duma5_im2        6.294      0.991  5.935E-008  9.43E-007 2.02E-006 3.209E-005
plngi_b              5.805      0.914  1.313E-008  2.262E-007 6.47E-008 1.115E-006
plngi_d              5.832     0.9183  1.308E-008  2.243E-007 6.505E-008 1.115E-006
pdtlitrak                6     0.9448  1.25E-008  2.083E-007 6.889E-008 1.148E-006
duma12               6.102     0.9609  1.218E-008  1.997E-007 7.097E-008 1.163E-006
tmngh4               6.198      0.976  1.194E-008  1.926E-007 9.331E-008 1.505E-006
ssu_tmegah3_ir1      6.237      0.982  1.184E-008  1.898E-007 1.026E-007 1.645E-006
tmngh2               6.253     0.9846  1.179E-008  1.885E-007 1.067E-007 1.706E-006
sprk9                5.985     0.9424  1.277E-008  2.134E-007 6.747E-008 1.127E-006
bomba                5.999     0.9445  1.276E-008  2.127E-007 6.957E-008 1.16E-006
sprk8                6.032     0.9498  1.271E-008  2.108E-007 7.503E-008 1.244E-006
ssu_uptwres_im2      5.791     0.9118  1.312E-008  2.266E-007 7.079E-008 1.222E-006
maybank              5.845     0.9204   1.3E-008  2.224E-007 7.158E-008 1.225E-006
duma8                5.856      0.922  1.299E-008  2.218E-007 7.317E-008 1.25E-006
ssu_dsarcntr_ir1     5.778     0.9098  1.318E-008  2.281E-007 6.434E-008 1.114E-006
duma9                 5.93     0.9338  1.291E-008  2.178E-007 6.652E-008 1.122E-006
duma1                6.004     0.9454  1.279E-008  2.13E-007 6.756E-008 1.125E-006
elite                6.031     0.9496  1.274E-008  2.113E-007 6.793E-008 1.126E-006
duma10                5.88     0.9258   1.3E-008  2.211E-007 6.571E-008 1.118E-006
balaipolis           5.881      0.926   1.3E-008  2.21E-007 6.572E-008 1.118E-006
ppu_duma_vcb1            0          0          0          0         0         0
